1
 OpenBabel02192113383D

 13 12  0  0  0  0  0  0  0  0999 V2000
    1.0074    0.0592    0.0473 N   0  0  0  0  0  0  0  0  0  0  0  0
    0.5084    1.0748   -0.8794 C   0  0  0  0  0  0  0  0  0  0  0  0
    0.5084   -1.2633   -0.3279 C   0  0  0  0  0  0  0  0  0  0  0  0
    2.4697    0.0650    0.0714 C   0  0  0  0  0  0  0  0  0  0  0  0
   -0.5870    1.1001   -0.8688 H   0  0  0  0  0  0  0  0  0  0  0  0
    0.8394    0.8955   -1.9088 H   0  0  0  0  0  0  0  0  0  0  0  0
    0.8480    2.0717   -0.5766 H   0  0  0  0  0  0  0  0  0  0  0  0
   -0.5870   -1.2813   -0.3073 H   0  0  0  0  0  0  0  0  0  0  0  0
    0.8480   -2.0200    0.3883 H   0  0  0  0  0  0  0  0  0  0  0  0
    0.8394   -1.5631   -1.3291 H   0  0  0  0  0  0  0  0  0  0  0  0
    2.8452    1.0433    0.3917 H   0  0  0  0  0  0  0  0  0  0  0  0
    2.9018   -0.1662   -0.9091 H   0  0  0  0  0  0  0  0  0  0  0  0
    2.8454   -0.6673    0.7950 H   0  0  0  0  0  0  0  0  0  0  0  0
  1  2  1  0  0  0  0
  1  3  1  0  0  0  0
  1  4  1  0  0  0  0
  2  5  1  0  0  0  0
  2  6  1  0  0  0  0
  2  7  1  0  0  0  0
  3  8  1  0  0  0  0
  3  9  1  0  0  0  0
  3 10  1  0  0  0  0
  4 11  1  0  0  0  0
  4 12  1  0  0  0  0
  4 13  1  0  0  0  0
M  END
