1
 OpenBabel02192113383D

 13 12  0  0  0  0  0  0  0  0999 V2000
    0.8877   -0.0216   -0.2109 P   0  0  0  0  0  0  0  0  0  0  0  0
    0.4051   -1.6619    0.4544 C   0  0  0  0  0  0  0  0  0  0  0  0
    0.4071    1.0510    1.1965 C   0  0  0  0  0  0  0  0  0  0  0  0
    2.7025   -0.0921    0.0420 C   0  0  0  0  0  0  0  0  0  0  0  0
   -0.6841   -1.7399    0.5197 H   0  0  0  0  0  0  0  0  0  0  0  0
    0.8190   -1.8366    1.4520 H   0  0  0  0  0  0  0  0  0  0  0  0
    0.7605   -2.4590   -0.2054 H   0  0  0  0  0  0  0  0  0  0  0  0
   -0.6819    1.0847    1.2949 H   0  0  0  0  0  0  0  0  0  0  0  0
    0.7623    2.0735    1.0333 H   0  0  0  0  0  0  0  0  0  0  0  0
    0.8230    0.6941    2.1438 H   0  0  0  0  0  0  0  0  0  0  0  0
    3.1525   -0.8252   -0.6339 H   0  0  0  0  0  0  0  0  0  0  0  0
    2.9622   -0.3716    1.0681 H   0  0  0  0  0  0  0  0  0  0  0  0
    3.1535    0.8818   -0.1684 H   0  0  0  0  0  0  0  0  0  0  0  0
  1  2  1  0  0  0  0
  1  3  1  0  0  0  0
  1  4  1  0  0  0  0
  2  5  1  0  0  0  0
  2  6  1  0  0  0  0
  2  7  1  0  0  0  0
  3  8  1  0  0  0  0
  3  9  1  0  0  0  0
  3 10  1  0  0  0  0
  4 11  1  0  0  0  0
  4 12  1  0  0  0  0
  4 13  1  0  0  0  0
M  END
